pglib-opf-21.07/pglib_opf_case13659_pegase.m
%%%%%%%%%%%%%%%%%%%%%%%%%%%%%%%%%%%%%%%%%%%%%%%%%%%%%%%%%%%%%%%%%%%%%%%%%%%
%%%%                                                                  %%%%%
%%%%    IEEE PES Power Grid Library - Optimal Power Flow - v21.07     %%%%%
%%%%          (https://github.com/power-grid-lib/pglib-opf)           %%%%%
%%%%               Benchmark Group - Typical Operations               %%%%%
%%%%                         29 - July - 2021                         %%%%%
%%%%                                                                  %%%%%
%%%%%%%%%%%%%%%%%%%%%%%%%%%%%%%%%%%%%%%%%%%%%%%%%%%%%%%%%%%%%%%%%%%%%%%%%%%
%
%CASE13659PEGASE  Power flow data for European system with step-up transformers.
%   Please see CASEFORMAT for details on the case file format.
%
%   This case accurately represents the size and complexity of the European
%   high voltage transmission network. The network contains 13,659 buses,
%   4,092 generators, and 20,467 branches and it operates at 750, 400, 380,
%   330, 220, 154, 150, 120, and 110 kV. Low voltage buses ranging from 
%   27,000 to 400 V are used to model step-up transformers which connect 
%   generators to the high-voltage network. Please note that the data are
%   fictitious and do not correspond to real world data. They can thus be
%   used to validate methods and tools but should not be used for operation
%   and planning of the European grid.
%
%   The data stems from the Pan European Grid Advanced Simulation and State
%   Estimation (PEGASE) project, part of the 7th Framework Program of the
%   European Union (http://www.fp7-pegase.com/). When publishing results
%   based on this data, please cite:
%
%     C. Josz, S. Fliscounakis, J. Maeght, and P. Panciatici,
%     "AC Power Flow Data in MATPOWER and QCQP Format: iTesla, RTE Snapshots, and PEGASE"
%     http://arxiv.org/abs/1603.01533
% 
%     S. Fliscounakis, P. Panciatici, F. Capitanescu, and L. Wehenkel,
%     "Contingency ranking with respect to overloads in very large power
%     systems taking into account uncertainty, preventive and corrective
%     actions", Power Systems, IEEE Trans. on, (28)4:4909-4917, 2013.
%     http://dx.doi.org/10.1109/TPWRS.2013.2251015
%
%   Remarks:
%
%   1. Line flow limits are the current flow limits found in PEGASE data.
%
%   2. PEGASE data contains asymmetric shunt conductance and susceptance in
%   the PI transmission line model of branches. Thus total line charging
%   susceptance of branches is set to 0 p.u. and the nodal representation
%   of shunt condutance and susceptance is used. As a result, power flow
%   equations are left unchanged compared with original PEGASE data.
%   However, line flow constraints in the optimal flow problem are
%   modified.
%
%   3. Identical linear costs are used for all generators to form a loss
%   minimizing OPF objective function.
%
%   4. Since some parts of the network are aggregated, some generators
%   (e.g. with negative PMIN) represent aggregations of multiple loads
%   and generators.
%
%   Cedric Josz, Jean Maeght, Stephane Fliscounakis, and Patrick Panciatici
%   firstname.lastname@rte-france.com
%   Reseau de Transport d'Electricite (French Transmission System Operator)
%   Departement Expertise Systeme, Immeuble "Le Colbert"
%   9 rue de la Porte de Buc, 78000 Versailles Cedex, France
%   March 4th, 2016
%
%   Copyright (c) 2016 by Cedric Josz, Jean Maeght, Stephane Fliscounakis,
%   and Patrick Panciatici
%   Licensed under the Creative Commons Attribution 4.0 International license,
%   http://creativecommons.org/licenses/by/4.0/
%
function mpc = pglib_opf_case13659_pegase
mpc.version = '2';
mpc.baseMVA = 100.0;

%% bus data
%	bus_i	type	Pd	Qd	Gs	Bs	area	Vm	Va	baseKV	zone	Vmax	Vmin
mpc.bus = [
	1	 3	 0.0	 0.0	 0.0	 0.0	 0	    1.00000	    0.00000	 20.0	 6	    1.10000	    0.90000;
	2	 1	 72.68	 45.0	 0.0	 6.61	 0	    1.00000	    0.00000	 150.0	 9	    1.10000	    0.90000;
	3	 1	 378.4	 98.5	 0.0	 16.61	 0	    1.00000	    0.00000	 220.0	 6	    1.10000	    0.90000;
	4	 1	 134.0	 19.1	 0.0	 0.08	 0	    1.00000	    0.00000	 154.0	 1	    1.10000	    0.90000;
	5	 1	 151.0	 48.8	 0.0	 4.69	 0	    1.00000	    0.00000	 220.0	 5	    1.10000	    0.90000;
	6	 1	 171.41	 23.4	 0.0	 2.1	 0	    1.00000	    0.00000	 220.0	 5	    1.10000	    0.90000;
	7	 1	 45.95	 14.0	 0.0	 13.34	 0	    1.00000	    0.00000	 220.0	 6	    1.10000	    0.90000;
	8	 1	 343.4	 53.1	 0.70508	 36.832433	 0	    1.00000	    0.00000	 380.0	 6	    1.10000	    0.90000;
	9	 1	 -0.0	 -0.0	 0.0	 75.076713	 0	    1.00000	    0.00000	 380.0	 5	    1.10000	    0.90000;
	10	 1	 31.03	 10.3	 0.0	 0.65	 0	    1.00000	    0.00000	 110.0	 21	    1.10000	    0.90000;
	11	 1	 0.0	 -0.0	 0.0	 3.41	 0	    1.00000	    0.00000	 154.0	 1	    1.10000	    0.90000;
	12	 2	 0.0	 0.0	 0.0	 0.0	 0	    1.00000	    0.00000	 20.0	 3	    1.10000	    0.90000;
	13	 1	 14.3	 2.0	 0.0	 1.91	 0	    1.00000	    0.00000	 154.0	 1	    1.10000	    0.90000;
	14	 1	 134.0	 24.7	 0.0	 12.44	 0	    1.00000	    0.00000	 220.0	 5	    1.10000	    0.90000;
	15	 1	 0.0	 0.0	 0.0	 0.0	 0	    1.00000	    0.00000	 150.0	 9	    1.10000	    0.90000;
	16	 1	 -6.11	 2.0	 0.0	 0.47	 0	    1.00000	    0.00000	 150.0	 9	    1.10000	    0.90000;
	17	 1	 -22.74	 -8.32	 0.0	 6.5	 0	    1.00000	    0.00000	 220.0	 6	    1.10000	    0.90000;
	18	 2	 0.0	 0.0	 0.0	 0.0	 0	    1.00000	    0.00000	 20.0	 14	    1.10000	    0.90000;
	19	 1	 59.67	 26.7	 0.0	 12.84	 0	    1.00000	    0.00000	 220.0	 4	    1.10000	    0.90000;
	20	 1	 30.6	 4.3	 0.0	 5.15	 0	    1.00000	    0.00000	 154.0	 1	    1.10000	    0.90000;
	21	 1	 0.0	 -0.0	 0.234457	 -0.195381	 0	    1.00000	    0.00000	 380.0	 6	    1.10000	    0.90000;
	22	 1	 67.67	 12.1	 0.0	 2.18	 0	    1.00000	    0.00000	 220.0	 3	    1.10000	    0.90000;
	23	 1	 0.0	 0.0	 0.295874	 20.603438	 0	    1.00000	    0.00000	 380.0	 3	    1.10000	    0.90000;
	24	 1	 25.33	 7.5	 0.0	 2.39	 0	    1.00000	    0.00000	 110.0	 12	    1.10000	    0.90000;
	25	 1	 1.4	 0.2	 0.0	 4.93	 0	    1.00000	    0.00000	 154.0	 1	    1.10000	    0.90000;
	26	 1	 161.2	 39.3	 0.0	 30.71	 0	    1.00000	    0.00000	 220.0	 5	    1.10000	    0.90000;
	27	 1	 0.0	 -0.0	 0.0	 0.85	 0	    1.00000	    0.00000	 220.0	 5	    1.10000	    0.90000;
	28	 1	 19.62	 7.1	 0.0	 1.15	 0	    1.00000	    0.00000	 110.0	 19	    1.10000	    0.90000;
	29	 2	 0.0	 0.0	 0.0	 0.0	 0	    1.00000	    0.00000	 20.0	 18	    1.10000	    0.90000;
	30	 1	 31.94	 8.8	 0.0	 0.73	 0	    1.00000	    0.00000	 110.0	 22	    1.10000	    0.90000;
	31	 1	 0.0	 -0.0	 0.235277	 0.313936	 0	    1.00000	    0.00000	 220.0	 3	    1.10000	    0.90000;
	32	 1	 167.3	 54.8	 0.0	 110.54	 0	    1.00000	    0.00000	 380.0	 5	    1.10000	    0.90000;
	33	 2	 0.0	 0.0	 0.0	 0.0	 0	    1.00000	    0.00000	 20.0	 4	    1.10000	    0.90000;
	34	 1	 -0.0	 0.0	 0.0	 14.82	 0	    1.00000	    0.00000	 380.0	 13	    1.10000	    0.90000;
	35	 1	 0.0	 0.0	 0.0	 0.0	 0	    1.00000	    0.00000	 150.0	 9	    1.10000	    0.90000;
	36	 1	 152.9	 49.4	 0.0	 27.65	 0	    1.00000	    0.00000	 380.0	 5	    1.10000	    0.90000;
	37	 1	 -0.0	 0.0	 0.0	 0.56	 0	    1.00000	    0.00000	 150.0	 9	    1.10000	    0.90000;
	38	 1	 69.68	 43.2	 0.0	 6.3	 0	    1.00000	    0.00000	 150.0	 9	    1.10000	    0.90000;
	39	 2	 0.0	 0.0	 0.0	 0.0	 0	    1.00000	    0.00000	 20.0	 9	    1.10000	    0.90000;
	40	 1	 0.0	 -0.0	 0.0	 37.54	 0	    1.00000	    0.00000	 220.0	 4	    1.10000	    0.90000;
	41	 1	 0.0	 -0.0	 0.0	 0.25	 0	    1.00000	    0.00000	 220.0	 4	    1.10000	    0.90000;
	42	 2	 0.0	 0.0	 0.0	 0.0	 0	    1.00000	    0.00000	 11.0	 1	    1.10000	    0.90000;
	43	 1	 13.51	 4.9	 0.0	 1.8	 0	    1.00000	    0.00000	 110.0	 19	    1.10000	    0.90000;
	44	 1	 10.51	 3.5	 0.0	 0.31	 0	    1.00000	    0.00000	 110.0	 12	    1.10000	    0.90000;
	45	 2	 0.0	 0.0	 0.0	 0.0	 0	    1.00000	    0.00000	 20.0	 4	    1.10000	    0.90000;
	46	 1	 -0.0	 0.0	 0.12	 15.34	 0	    1.00000	    0.00000	 220.0	 19	    1.10000	    0.90000;
	47	 1	 9.21	 2.6	 0.0	 2.0	 0	    1.00000	    0.00000	 110.0	 18	    1.10000	    0.90000;
	48	 1	 42.75	 12.8	 0.0	 13.3	 0	    1.00000	    0.00000	 220.0	 8	    1.10000	    0.90000;
	49	 1	 -0.0	 0.0	 0.019959	 0.320041	 0	    1.00000	    0.00000	 150.0	 10	    1.10000	    0.90000;
	50	 1	 16.02	 4.54	 0.0	 0.1	 0	    1.00000	    0.00000	 110.0	 23	    1.10000	    0.90000;
	51	 2	 0.0	 0.0	 0.0	 0.0	 0	    1.00000	    0.00000	 14.4	 1	    1.10000	    0.90000;
	52	 1	 27.9	 4.0	 0.0	 4.23	 0	    1.00000	    0.00000	 154.0	 1	    1.10000	    0.90000;
	53	 1	 20.82	 7.9	 0.0	 26.89	 0	    1.00000	    0.00000	 380.0	 4	    1.10000	    0.90000;
	54	 2	 0.0	 0.0	 0.0	 0.0	 0	    1.00000	    0.00000	 20.0	 14	    1.10000	    0.90000;
	55	 1	 0.0	 0.0	 0.0	 7.27	 0	    1.00000	    0.00000	 220.0	 5	    1.10000	    0.90000;
	56	 1	 10.11	 3.7	 0.0	 0.81	 0	    1.00000	    0.00000	 110.0	 19	    1.10000	    0.90000;
	57	 1	 10.01	 2.7	 0.0	 1.14	 0	    1.00000	    0.00000	 110.0	 18	    1.10000	    0.90000;
	58	 1	 6.31	 -0.0	 0.0	 0.67	 0	    1.00000	    0.00000	 110.0	 18	    1.10000	    0.90000;
	59	 1	 2.9	 0.9	 0.0	 0.6	 0	    1.00000	    0.00000	 110.0	 15	    1.10000	    0.90000;
	60	 1	 -0.0	 0.0	 0.318913	 17.760815	 0	    1.00000	    0.00000	 220.0	 6	    1.10000	    0.90000;
	61	 1	 -0.0	 -0.0	 0.549745	 0.432068	 0	    1.00000	    0.00000	 380.0	 2	    1.10000	    0.90000;
	62	 2	 0.0	 0.0	 0.0	 0.0	 0	    1.00000	    0.00000	 20.0	 5	    1.10000	    0.90000;
	63	 2	 0.0	 0.0	 0.0	 0.0	 0	    1.00000	    0.00000	 20.0	 5	    1.10000	    0.90000;
	64	 1	 151.8	 48.3	 0.0	 5.53	 0	    1.00000	    0.00000	 220.0	 4	    1.10000	    0.90000;
	65	 1	 127.6	 31.8	 0.0	 20.51	 0	    1.00000	    0.00000	 150.0	 8	    1.10000	    0.90000;
	66	 2	 0.0	 0.0	 0.0	 0.0	 0	    1.00000	    0.00000	 20.0	 22	    1.10000	    0.90000;
	67	 1	 0.0	 0.0	 0.0	 0.84	 0	    1.00000	    0.00000	 110.0	 21	    1.10000	    0.90000;
	68	 2	 0.0	 0.0	 0.0	 0.0	 0	    1.00000	    0.00000	 20.0	 4	    1.10000	    0.90000;
	69	 2	 0.0	 0.0	 0.0	 0.0	 0	    1.00000	    0.00000	 20.0	 4	    1.10000	    0.90000;
	70	 1	 110.5	 -26.8	 0.0	 16.37	 0	    1.00000	    0.00000	 220.0	 6	    1.10000	    0.90000;
	71	 1	 -0.0	 -0.0	 0.0	 0.0	 0	    1.00000	    0.00000	 20.0	 5	    1.10000	    0.90000;
	72	 1	 -0.0	 -0.0	 0.0	 0.0	 0	    1.00000	    0.00000	 20.0	 5	    1.10000	    0.90000;
	73	 1	 0.0	 0.0	 0.0	 1.23	 0	    1.00000	    0.00000	 220.0	 3	    1.10000	    0.90000;
	74	 1	 0.0	 -0.0	 0.0	 0.0	 0	    1.00000	    0.00000	 20.0	 5	    1.10000	    0.90000;
	75	 1	 0.0	 -0.0	 0.0	 0.0	 0	    1.00000	    0.00000	 20.0	 5	    1.10000	    0.90000;
	76	 1	 0.0	 -0.0	 0.0	 0.0	 0	    1.00000	    0.00000	 20.0	 5	    1.10000	    0.90000;
	77	 2	 0.0	 0.0	 0.0	 0.0	 0	    1.00000	    0.00000	 20.0	 5	    1.10000	    0.90000;
	78	 2	 0.0	 0.0	 0.0	 0.0	 0	    1.00000	    0.00000	 20.0	 5	    1.10000	    0.90000;
	79	 2	 0.0	 0.0	 0.0	 0.0	 0	    1.00000	    0.00000	 20.0	 5	    1.10000	    0.90000;
	80	 1	 140.0	 79.7	 0.0	 6.5	 0	    1.00000	    0.00000	 220.0	 3	    1.10000	    0.90000;
	81	 1	 21.6	 3.0	 0.0	 3.54	 0	    1.00000	    0.00000	 154.0	 1	    1.10000	    0.90000;
	82	 1	 0.0	 -0.0	 0.0	 2.31	 0	    1.00000	    0.00000	 380.0	 5	    1.10000	    0.90000;
	83	 1	 119.2	 20.7	 0.0	 3.31	 0	    1.00000	    0.00000	 220.0	 5	    1.10000	    0.90000;
	84	 1	 26.43	 9.9	 0.0	 9.57	 0	    1.00000	    0.00000	 110.0	 22	    1.10000	    0.90000;
	85	 1	 0.24	 -1.66	 0.0	 0.65	 0	    1.00000	    0.00000	 110.0	 18	    1.10000	    0.90000;
	86	 2	 0.0	 0.0	 0.0	 0.0	 0	    1.00000	    0.00000	 20.0	 6	    1.10000	    0.90000;
	87	 1	 -0.0	 0.0	 0.0	 0.0	 0	    1.00000	    0.00000	 20.0	 6	    1.10000	    0.90000;
	88	 1	 -0.0	 0.0	 0.0	 0.0	 0	    1.00000	    0.00000	 20.0	 6	    1.10000	    0.90000;
	89	 1	 0.0	 0.0	 0.0	 58.57	 0	    1.00000	    0.00000	 380.0	 3	    1.10000	    0.90000;
	90	 1	 -0.0	 0.0	 0.0	 1.34	 0	    1.00000	    0.00000	 110.0	 18	    1.10000	    0.90000;
	91	 1	 187.9	 110.2	 0.0	 21.25	 0	    1.00000	    0.00000	 380.0	 3	    1.10000	    0.90000;
	92	 1	 14.92	 5.5	 0.0	 1.31	 0	    1.00000	    0.00000	 110.0	 15	    1.10000	    0.90000;
	93	 1	 -18.52	 6.1	 0.0	 0.79	 0	    1.00000	    0.00000	 150.0	 9	    1.10000	    0.90000;
	94	 2	 0.0	 0.0	 0.0	 0.0	 0	    1.00000	    0.00000	 11.0	 1	    1.10000	    0.90000;
	95	 1	 4.61	 1.7	 0.0	 2.32	 0	    1.00000	    0.00000	 110.0	 19	    1.10000	    0.90000;
	96	 2	 0.0	 0.0	 0.0	 0.0	 0	    1.00000	    0.00000	 20.0	 4	    1.10000	    0.90000;
	97	 2	 0.0	 0.0	 0.0	 0.0	 0	    1.00000	    0.00000	 20.0	 4	    1.10000	    0.90000;
	98	 2	 0.0	 0.0	 0.0	 0.0	 0	    1.00000	    0.00000	 20.0	 4	    1.10000	    0.90000;
	99	 2	 0.0	 0.0	 0.0	 0.0	 0	    1.00000	    0.00000	 20.0	 4	    1.10000	    0.90000;
	100	 2	 0.0	 0.0	 0.0	 0.0	 0	    1.00000	    0.00000	 20.0	 4	    1.10000	    0.90000;
	101	 2	 0.0	 0.0	 0.0	 0.0	 0	    1.00000	    0.00000	 20.0	 4	    1.10000	    0.90000;
	102	 2	 0.0	 0.0	 0.0	 0.0	 0	    1.00000	    0.00000	 20.0	 4	    1.10000	    0.90000;
	103	 1	 62.87	 20.5	 0.0	 1.15	 0	    1.00000	    0.00000	 150.0	 8	    1.10000	    0.90000;
	104	 2	 0.0	 0.0	 0.0	 0.0	 0	    1.00000	    0.00000	 20.0	 3	    1.10000	    0.90000;
	105	 1	 13.5	 14.8	 0.0	 132.435168	 0	    1.00000	    0.00000	 380.0	 9	    1.20000	    0.80000;
	106	 1	 126.3	 42.4	 0.0	 55.24	 0	    1.00000	    0.00000	 150.0	 8	    1.10000	    0.90000;
	107	 2	 0.0	 0.0	 0.0	 0.0	 0	    1.00000	    0.00000	 20.0	 3	    1.10000	    0.90000;
	108	 1	 6.91	 -4.6	 0.0	 5.75	 0	    1.00000	    0.00000	 220.0	 4	    1.10000	    0.90000;
	109	 1	 15.72	 5.2	 0.0	 0.11	 0	    1.00000	    0.00000	 110.0	 12	    1.10000	    0.90000;
	110	 2	 0.0	 0.0	 0.0	 0.0	 0	    1.00000	    0.00000	 20.0	 3	    1.10000	    0.90000;
	111	 1	 16.12	 4.3	 0.0	 0.49	 0	    1.00000	    0.00000	 110.0	 23	    1.10000	    0.90000;
	112	 1	 38.74	 6.1	 0.0	 1.17	 0	    1.00000	    0.00000	 220.0	 4	    1.10000	    0.90000;
	113	 1	 22.13	 10.7	 0.0	 14.21	 0	    1.00000	    0.00000	 220.0	 8	    1.10000	    0.90000;
	114	 2	 0.0	 0.0	 0.0	 0.0	 0	    1.00000	    0.00000	 20.0	 4	    1.10000	    0.90000;
	115	 2	 0.0	 0.0	 0.0	 0.0	 0	    1.00000	    0.00000	 20.0	 10	    1.10000	    0.90000;
	116	 1	 0.0	 -0.0	 0.0	 0.73	 0	    1.00000	    0.00000	 220.0	 4	    1.10000	    0.90000;
	117	 1	 0.0	 0.0	 0.0	 0.83	 0	    1.00000	    0.00000	 110.0	 18	    1.10000	    0.90000;
	118	 1	 138.8	 136.7	 0.0	 8.76	 0	    1.00000	    0.00000	 380.0	 3	    1.10000	    0.90000;
	119	 1	 137.3	 66.4	 0.174767	 14.17407	 0	    1.00000	    0.00000	 220.0	 23	    1.10000	    0.90000;
	120	 1	 67.76	 19.18	 0.0	 1.47	 0	    1.00000	    0.00000	 150.0	 1	    1.10000	    0.90000;
	121	 2	 0.0	 0.0	 0.0	 0.0	 0	    1.00000	    0.00000	 20.0	 14	    1.10000	    0.90000;
	122	 1	 0.0	 -0.0	 0.0	 6.62	 0	    1.00000	    0.00000	 220.0	 3	    1.10000	    0.90000;
	123	 1	 -0.0	 -0.0	 0.0	 7.22	 0	    1.00000	    0.00000	 380.0	 1	    1.10000	    0.90000;
	124	 1	 1.0	 0.3	 0.0	 0.19	 0	    1.00000	    0.00000	 110.0	 19	    1.10000	    0.90000;
	125	 1	 20.9	 3.0	 0.0	 5.74	 0	    1.00000	    0.00000	 154.0	 1	    1.10000	    0.90000;
	126	 1	 0.0	 0.0	 0.0	 0.12	 0	    1.00000	    0.00000	 150.0	 9	    1.10000	    0.90000;
	127	 1	 21.52	 5.1	 0.0	 0.5	 0	    1.00000	    0.00000	 110.0	 18	    1.10000	    0.90000;
	128	 1	 71.98	 28.8	 0.0	 11.0	 0	    1.00000	    0.00000	 220.0	 6	    1.10000	    0.90000;
	129	 1	 0.0	 0.0	 0.205132	 4.470744	 0	    1.00000	    0.00000	 380.0	 2	    1.10000	    0.90000;
	130	 1	 363.25	 115.39	 0.0	 3.95	 0	    1.00000	    0.00000	 220.0	 5	    1.10000	    0.90000;
	131	 1	 192.9	 73.3	 0.0	 20.75	 0	    1.00000	    0.00000	 380.0	 3	    1.10000	    0.90000;
	132	 2	 0.0	 0.0	 0.0	 0.0	 0	    1.00000	    0.00000	 11.0	 1	    1.10000	    0.90000;
	133	 2	 0.0	 0.0	 0.0	 0.0	 0	    1.00000	    0.00000	 20.0	 14	    1.10000	    0.90000;
	134	 2	 0.0	 0.0	 0.0	 0.0	 0	    1.00000	    0.00000	 20.0	 4	    1.10000	    0.90000;
	135	 2	 0.0	 0.0	 0.0	 0.0	 0	    1.00000	    0.00000	 20.0	 4	    1.10000	    0.90000;
	136	 2	 0.0	 0.0	 0.0	 0.0	 0	    1.00000	    0.00000	 20.0	 3	    1.10000	    0.90000;
	137	 1	 17.52	 6.3	 0.0	 0.26	 0	    1.00000	    0.00000	 110.0	 19	    1.10000	    0.90000;
	138	 1	 33.14	 12.0	 0.0	 0.65	 0	    1.00000	    0.00000	 110.0	 19	    1.10000	    0.90000;
	139	 1	 40.44	 25.0	 0.0	 9.82	 0	    1.00000	    0.00000	 150.0	 9	    1.10000	    0.90000;
	140	 1	 193.17	 53.37	 0.0	 4.58	 0	    1.00000	    0.00000	 220.0	 5	    1.10000	    0.90000;
	141	 1	 90.7	 25.5	 0.0	 3.11	 0	    1.00000	    0.00000	 220.0	 3	    1.20000	    0.80000;
	142	 1	 176.3	 -58.9	 0.0	 24.77	 0	    1.00000	    0.00000	 380.0	 6	    1.10000	    0.90000;
	143	 1	 35.94	 22.3	 0.0	 0.0	 0	    1.00000	    0.00000	 150.0	 9	    1.10000	    0.90000;
	144	 2	 0.0	 0.0	 0.0	 0.0	 0	    1.00000	    0.00000	 20.0	 14	    1.10000	    0.90000;
	145	 2	 0.0	 0.0	 0.0	 0.0	 0	    1.00000	    0.00000	 20.0	 5	    1.10000	    0.90000;
	146	 2	 0.0	 0.0	 0.0	 0.0	 0	    1.00000	    0.00000	 20.0	 5	    1.10000	    0.90000;
	147	 2	 0.0	 0.0	 0.0	 0.0	 0	    1.00000	    0.00000	 20.0	 5	    1.10000	    0.90000;
	148	 1	 143.9	 123.2	 0.0	 72.64	 0	    1.00000	    0.00000	 380.0	 3	    1.10000	    0.90000;
	149	 1	 -0.0	 -0.0	 0.0	 3.77	 0	    1.00000	    0.00000	 220.0	 6	    1.10000	    0.90000;
	150	 1	 -0.0	 8.4	 0.0	 15.72	 0	    1.00000	    0.00000	 150.0	 9	    1.10000	    0.90000;
	151	 2	 0.0	 0.0	 0.0	 0.0	 0	    1.00000	    0.00000	 13.8	 1	    1.10000	    0.90000;
	152	 1	 51.36	 -8.8	 0.0	 2.15	 0	    1.00000	    0.00000	 220.0	 6	    1.10000	    0.90000;
	153	 2	 0.0	 0.0	 0.0	 0.0	 0	    1.00000	    0.00000	 20.0	 14	    1.10000	    0.90000;
	154	 2	 0.0	 0.0	 0.0	 0.0	 0	    1.00000	    0.00000	 20.0	 3	    1.10000	    0.90000;
	155	 1	 -0.0	 -0.0	 0.0	 82.55	 0	    1.00000	    0.00000	 380.0	 6	    1.10000	    0.90000;
	156	 2	 0.0	 0.0	 0.0	 0.0	 0	    1.00000	    0.00000	 20.0	 6	    1.10000	    0.90000;
	157	 1	 322.7	 11.9	 0.0	 10.28	 0	    1.00000	    0.00000	 380.0	 6	    1.10000	    0.90000;
	158	 1	 303.6	 79.8	 0.019533	 1.690467	 0	    1.00000	    0.00000	 220.0	 5	    1.10000	    0.90000;
	159	 1	 3.8	 1.3	 0.0	 0.4	 0	    1.00000	    0.00000	 110.0	 18	    1.10000	    0.90000;
	160	 1	 137.0	 19.5	 0.0	 4.9	 0	    1.00000	    0.00000	 154.0	 1	    1.10000	    0.90000;
	161	 2	 0.0	 0.0	 0.0	 0.0	 0	    1.00000	    0.00000	 20.0	 6	    1.10000	    0.90000;
	162	 2	 0.0	 0.0	 0.0	 0.0	 0	    1.00000	    0.00000	 20.0	 6	    1.10000	    0.90000;
	163	 1	 0.0	 0.0	 0.0	 0.0	 0	    1.00000	    0.00000	 150.0	 9	    1.10000	    0.90000;
	164	 1	 61.07	 36.0	 0.0	 3.09	 0	    1.00000	    0.00000	 220.0	 11	    1.10000	    0.90000;
	165	 2	 0.0	 0.0	 0.0	 0.0	 0	    1.00000	    0.00000	 20.0	 4	    1.10000	    0.90000;
	166	 1	 -0.0	 0.0	 0.0	 3.24	 0	    1.00000	    0.00000	 220.0	 3	    1.10000	    0.90000;
	167	 1	 0.0	 0.0	 0.0	 6.520303	 0	    1.00000	    0.00000	 380.0	 5	    1.10000	    0.90000;
	168	 1	 55.7	 7.9	 0.0	 4.21	 0	    1.00000	    0.00000	 154.0	 1	    1.10000	    0.90000;
	169	 1	 0.0	 0.0	 0.0	 4.21	 0	    1.00000	    0.00000	 220.0	 5	    1.10000	    0.90000;
	170	 1	 1.8	 0.7	 0.0	 0.3	 0	    1.00000	    0.00000	 110.0	 19	    1.10000	    0.90000;
	171	 1	 0.0	 -0.0	 0.0	 0.71	 0	    1.00000	    0.00000	 150.0	 9	    1.10000	    0.90000;
	172	 1	 2.5	 0.0	 0.0	 0.96	 0	    1.00000	    0.00000	 110.0	 18	    1.10000	    0.90000;
	173	 1	 0.0	 0.0	 0.0	 0.09	 0	    1.00000	    0.00000	 150.0	 9	    1.10000	    0.90000;
	174	 1	 38.94	 11.0	 0.0	 0.64	 0	    1.00000	    0.00000	 110.0	 1	    1.10000	    0.90000;
	175	 1	 45.15	 14.1	 0.0	 0.19	 0	    1.00000	    0.00000	 110.0	 15	    1.10000	    0.90000;
	176	 1	 0.0	 -0.0	 0.0	 5.75	 0	    1.00000	    0.00000	 220.0	 3	    1.10000	    0.90000;
	177	 1	 0.0	 0.0	 0.019004	 4.360996	 0	    1.00000	    0.00000	 220.0	 11	    1.10000	    0.90000;
	178	 1	 0.0	 -0.0	 0.566322	 -0.241138	 0	    1.00000	    0.00000	 220.0	 5	    1.10000	    0.90000;
	179	 2	 0.0	 0.0	 0.0	 0.0	 0	    1.00000	    0.00000	 20.0	 4	    1.10000	    0.90000;
	180	 1	 17.22	 5.7	 0.0	 1.22	 0	    1.00000	    0.00000	 110.0	 21	    1.10000	    0.90000;
	181	 1	 -0.0	 -0.0	 0.0	 0.0	 0	    1.00000	    0.00000	 20.0	 14	    1.10000	    0.90000;
	182	 2	 0.0	 0.0	 0.0	 0.0	 0	    1.00000	    0.00000	 20.0	 20	    1.10000	    0.90000;
	183	 1	 0.0	 0.0	 0.0	 4.3	 0	    1.00000	    0.00000	 220.0	 6	    1.10000	    0.90000;
	184	 1	 23.73	 12.7	 0.0	 0.52	 0	    1.00000	    0.00000	 220.0	 5	    1.10000	    0.90000;
	185	 1	 121.9	 7.4	 0.0	 1.34	 0	    1.00000	    0.00000	 220.0	 3	    1.10000	    0.90000;
	186	 1	 0.0	 -0.0	 0.135375	 47.750675	 0	    1.00000	    0.00000	 380.0	 10	    1.10000	    0.90000;
	187	 1	 47.35	 16.4	 0.0	 4.08	 0	    1.00000	    0.00000	 110.0	 22	    1.10000	    0.90000;
	188	 1	 -0.0	 0.0	 0.0	 0.0	 0	    1.00000	    0.00000	 20.0	 4	    1.10000	    0.90000;
	189	 1	 -0.0	 -0.0	 0.0	 21.39	 0	    1.00000	    0.00000	 380.0	 1	    1.10000	    0.90000;
	190	 1	 38.14	 12.5	 0.0	 6.28	 0	    1.00000	    0.00000	 150.0	 8	    1.10000	    0.90000;
	191	 1	 54.2	 7.8	 0.0	 94.9	 0	    1.00000	    0.00000	 400.0	 1	    1.10000	    0.90000;
	192	 1	 130.6	 84.9	 0.0	 4.22	 0	    1.00000	    0.00000	 220.0	 7	    1.10000	    0.90000;
	193	 1	 7.91	 2.6	 0.0	 0.74	 0	    1.00000	    0.00000	 110.0	 12	    1.10000	    0.90000;
	194	 1	 42.1	 74.61	 0.0	 37.58	 0	    1.00000	    0.00000	 150.0	 1	    1.10000	    0.90000;
	195	 1	 -75.38	 7.8	 0.0	 29.9	 0	    1.00000	    0.00000	 380.0	 10	    1.10000	    0.90000;
	196	 2	 0.0	 0.0	 0.0	 0.0	 0	    1.00000	    0.00000	 20.0	 6	    1.10000	    0.90000;
	197	 2	 0.0	 0.0	 0.0	 0.0	 0	    1.00000	    0.00000	 20.0	 4	    1.10000	    0.90000;
	198	 1	 41.05	 14.3	 0.0	 11.53	 0	    1.00000	    0.00000	 220.0	 6	    1.10000	    0.90000;
	199	 1	 -0.0	 -0.0	 0.0	 4.14	 0	    1.00000	    0.00000	 220.0	 8	    1.10000	    0.90000;
	200	 1	 100.9	 49.3	 0.020067	 4.329933	 0	    1.00000	    0.00000	 220.0	 13	    1.10000	    0.90000;
...
];

%% generator data
%	bus	Pg	Qg	Qmax	Qmin	Vg	mBase	status	Pmax	Pmin
mpc.gen = [
	1	 64.11	 15.0	 40.0	 -10.0	 1.0	 100.0	 1	 100.0	 28.22; % NG
	12	 300.0	 80.0	 210.0	 -50.0	 1.0	 100.0	 1	 500.0	 100.0; % NG
	18	 62.675	 10.0	 30.0	 -10.0	 1.0	 100.0	 1	 100.0	 25.35; % NG
	29	 61.595	 10.0	 30.0	 -10.0	 1.0	 100.0	 1	 100.0	 23.19; % NG
	33	 58.45	 15.0	 40.0	 -10.0	 1.0	 100.0	 1	 100.0	 16.9; % NG
	39	 300.0	 80.0	 210.0	 -50.0	 1.0	 100.0	 1	 500.0	 100.0; % COW
	42	 55.365	 0.0	 20.0	 -20.0	 1.0	 100.0	 1	 100.0	 10.73; % COW
	45	 250.0	 60.0	 160.0	 -40.0	 1.0	 100.0	 1	 400.0	 100.0; % NG
	51	 250.0	 0.0	 90.0	 -90.0	 1.0	 100.0	 1	 400.0	 100.0; % COW
	54	 62.36	 10.0	 30.0	 -10.0	 1.0	 100.0	 1	 100.0	 24.72; % NG
	62	 850.0	 200.0	 520.0	 -120.0	 1.0	 100.0	 1	 1300.0	 400.0; % COW
	63	 850.0	 200.0	 520.0	 -120.0	 1.0	 100.0	 1	 1300.0	 400.0; % COW
	66	 250.0	 60.0	 160.0	 -40.0	 1.0	 100.0	 1	 400.0	 100.0; % NG
	68	 117.905	 15.0	 40.0	 -10.0	 1.0	 100.0	 1	 200.0	 35.81; % NG
	69	 117.905	 15.0	 40.0	 -10.0	 1.0	 100.0	 1	 200.0	 35.81; % NG
	77	 58.215	 10.0	 30.0	 -10.0	 1.0	 100.0	 1	 100.0	 16.43; % NG
	78	 118.16	 10.0	 30.0	 -10.0	 1.0	 100.0	 1	 200.0	 36.32; % NG
	79	 56.045	 10.0	 30.0	 -10.0	 1.0	 100.0	 1	 100.0	 12.09; % COW
	86	 250.0	 30.0	 80.0	 -20.0	 1.0	 100.0	 1	 400.0	 100.0; % NG
	94	 55.88	 5.0	 20.0	 -10.0	 1.0	 100.0	 1	 100.0	 11.76; % NG
	96	 66.475	 15.0	 40.0	 -10.0	 1.0	 100.0	 1	 100.0	 32.95; % NG
	97	 66.475	 15.0	 40.0	 -10.0	 1.0	 100.0	 1	 100.0	 32.95; % NG
	98	 66.475	 15.0	 40.0	 -10.0	 1.0	 100.0	 1	 100.0	 32.95; % NG
	99	 57.95	 15.0	 40.0	 -10.0	 1.0	 100.0	 1	 100.0	 15.9; % NG
	100	 57.95	 15.0	 40.0	 -10.0	 1.0	 100.0	 1	 100.0	 15.9; % NG
	101	 66.475	 15.0	 40.0	 -10.0	 1.0	 100.0	 1	 100.0	 32.95; % NG
	102	 66.475	 15.0	 40.0	 -10.0	 1.0	 100.0	 1	 100.0	 32.95; % COW
	104	 129.315	 20.0	 60.0	 -20.0	 1.0	 100.0	 1	 200.0	 58.63; % NG
	107	 122.755	 20.0	 60.0	 -20.0	 1.0	 100.0	 1	 200.0	 45.51; % NG
	110	 130.49	 20.0	 60.0	 -20.0	 1.0	 100.0	 1	 200.0	 60.98; % COW
	114	 64.115	 15.0	 40.0	 -10.0	 1.0	 100.0	 1	 100.0	 28.23; % NG
	115	 57.45	 10.0	 30.0	 -10.0	 1.0	 100.0	 1	 100.0	 14.9; % NG
	121	 62.01	 10.0	 30.0	 -10.0	 1.0	 100.0	 1	 100.0	 24.02; % NG
	132	 52.175	 0.0	 10.0	 -10.0	 1.0	 100.0	 1	 100.0	 4.35; % COW
	133	 62.255	 10.0	 30.0	 -10.0	 1.0	 100.0	 1	 100.0	 24.51; % COW
	134	 65.18	 15.0	 40.0	 -10.0	 1.0	 100.0	 1	 100.0	 30.36; % NG
	135	 64.115	 15.0	 40.0	 -10.0	 1.0	 100.0	 1	 100.0	 28.23; % NG
	136	 116.945	 20.0	 60.0	 -20.0	 1.0	 100.0	 1	 200.0	 33.89; % NG
	144	 55.935	 10.0	 30.0	 -10.0	 1.0	 100.0	 1	 100.0	 11.87; % NG
	145	 850.0	 200.0	 520.0	 -120.0	 1.0	 100.0	 1	 1300.0	 400.0; % COW
	146	 850.0	 200.0	 520.0	 -120.0	 1.0	 100.0	 1	 1300.0	 400.0; % COW
	147	 850.0	 200.0	 520.0	 -120.0	 1.0	 100.0	 1	 1300.0	 400.0; % COW
	151	 300.0	 45.0	 150.0	 -60.0	 1.0	 100.0	 1	 500.0	 100.0; % NG
	153	 62.045	 10.0	 30.0	 -10.0	 1.0	 100.0	 1	 100.0	 24.09; % NG
	154	 1050.0	 200.0	 520.0	 -120.0	 1.0	 100.0	 1	 1600.0	 500.0; % NUC
	156	 66.445	 15.0	 40.0	 -10.0	 1.0	 100.0	 1	 100.0	 32.89; % NG
	161	 66.445	 15.0	 40.0	 -10.0	 1.0	 100.0	 1	 100.0	 32.89; % NG
	162	 66.445	 15.0	 40.0	 -10.0	 1.0	 100.0	 1	 100.0	 32.89; % COW
	165	 64.115	 15.0	 40.0	 -10.0	 1.0	 100.0	 1	 100.0	 28.23; % NG
	179	 131.675	 20.0	 60.0	 -20.0	 1.0	 100.0	 1	 200.0	 63.35; % NG
	182	 61.655	 10.0	 30.0	 -10.0	 1.0	 100.0	 1	 100.0	 23.31; % NG
	196	 127.025	 20.0	 60.0	 -20.0	 1.0	 100.0	 1	 200.0	 54.05; % NG
	197	 300.0	 60.0	 160.0	 -40.0	 1.0	 100.0	 1	 500.0	 100.0; % COW
	207	 59.315	 10.0	 30.0	 -10.0	 1.0	 100.0	 1	 100.0	 18.63; % NG
	220	 132.575	 20.0	 60.0	 -20.0	 1.0	 100.0	 1	 200.0	 65.15; % NG
	221	 132.575	 20.0	 60.0	 -20.0	 1.0	 100.0	 1	 200.0	 65.15; % COW
	222	 132.555	 20.0	 60.0	 -20.0	 1.0	 100.0	 1	 200.0	 65.11; % COW
	223	 132.575	 20.0	 60.0	 -20.0	 1.0	 100.0	 1	 200.0	 65.15; % NG
	224	 132.555	 20.0	 60.0	 -20.0	 1.0	 100.0	 1	 200.0	 65.11; % NG
	225	 132.555	 20.0	 60.0	 -20.0	 1.0	 100.0	 1	 200.0	 65.11; % COW
	229	 57.01	 10.0	 30.0	 -10.0	 1.0	 100.0	 1	 100.0	 14.02; % COW
	241	 850.0	 200.0	 520.0	 -120.0	 1.0	 100.0	 1	 1300.0	 400.0; % COW
	243	 60.81	 10.0	 30.0	 -10.0	 1.0	 100.0	 1	 100.0	 21.62; % NG
	248	 58.795	 10.0	 30.0	 -10.0	 1.0	 100.0	 1	 100.0	 17.59; % NG
	250	 250.0	 60.0	 160.0	 -40.0	 1.0	 100.0	 1	 400.0	 100.0; % COW
	258	 52.735	 0.0	 10.0	 -10.0	 1.0	 100.0	 1	 100.0	 5.47; % NG
	259	 62.835	 10.0	 30.0	 -10.0	 1.0	 100.0	 1	 100.0	 25.67; % NG
	266	 59.495	 10.0	 30.0	 -10.0	 1.0	 100.0	 1	 100.0	 18.99; % NG
	270	 56.135	 0.0	 20.0	 -20.0	 1.0	 100.0	 1	 100.0	 12.27; % NG
	271	 850.0	 200.0	 520.0	 -120.0	 1.0	 100.0	 1	 1300.0	 400.0; % NG
	273	 850.0	 200.0	 520.0	 -120.0	 1.0	 100.0	 1	 1300.0	 400.0; % COW
	274	 850.0	 200.0	 520.0	 -120.0	 1.0	 100.0	 1	 1300.0	 400.0; % COW
	275	 850.0	 200.0	 520.0	 -120.0	 1.0	 100.0	 1	 1300.0	 400.0; % NG
	276	 850.0	 200.0	 520.0	 -120.0	 1.0	 100.0	 1	 1300.0	 400.0; % COW
	278	 850.0	 65.0	 320.0	 -190.0	 1.0	 100.0	 1	 1300.0	 400.0; % COW
	283	 52.665	 0.0	 10.0	 -10.0	 1.0	 100.0	 1	 100.0	 5.33; % NG
	289	 62.3	 10.0	 30.0	 -10.0	 1.0	 100.0	 1	 100.0	 24.6; % COW
	294	 130.935	 0.0	 50.0	 -50.0	 1.0	 100.0	 1	 200.0	 61.87; % NG
	296	 57.0	 0.0	 10.0	 -10.0	 1.0	 100.0	 1	 100.0	 14.0; % COW
	299	 250.0	 35.0	 100.0	 -30.0	 1.0	 100.0	 1	 400.0	 100.0; % NG
	304	 63.325	 10.0	 30.0	 -10.0	 1.0	 100.0	 1	 100.0	 26.65; % NG
	305	 59.245	 10.0	 30.0	 -10.0	 1.0	 100.0	 1	 100.0	 18.49; % NG
	306	 59.245	 10.0	 30.0	 -10.0	 1.0	 100.0	 1	 100.0	 18.49; % COW
	307	 55.885	 10.0	 30.0	 -10.0	 1.0	 100.0	 1	 100.0	 11.77; % COW
	308	 55.885	 10.0	 30.0	 -10.0	 1.0	 100.0	 1	 100.0	 11.77; % NG
	309	 60.695	 10.0	 30.0	 -10.0	 1.0	 100.0	 1	 100.0	 21.39; % NG
	310	 60.695	 10.0	 30.0	 -10.0	 1.0	 100.0	 1	 100.0	 21.39; % NG
	311	 60.695	 10.0	 30.0	 -10.0	 1.0	 100.0	 1	 100.0	 21.39; % NG
	312	 60.695	 10.0	 30.0	 -10.0	 1.0	 100.0	 1	 100.0	 21.39; % NG
	315	 50.685	 0.0	 10.0	 -10.0	 1.0	 100.0	 1	 100.0	 1.37; % NG
	323	 550.0	 200.0	 520.0	 -120.0	 1.0	 100.0	 1	 900.0	 200.0; % COW
	324	 51.665	 0.0	 10.0	 -10.0	 1.0	 100.0	 1	 100.0	 3.33; % NG
	325	 51.6	 0.0	 10.0	 -10.0	 1.0	 100.0	 1	 100.0	 3.2; % COW
	328	 118.18	 15.0	 40.0	 -10.0	 1.0	 100.0	 1	 200.0	 36.36; % NG
	331	 59.205	 5.0	 30.0	 -20.0	 1.0	 100.0	 1	 100.0	 18.41; % NG
	332	 50.665	 0.0	 10.0	 -10.0	 1.0	 100.0	 1	 100.0	 1.33; % NG
	336	 55.36	 0.0	 10.0	 -10.0	 1.0	 100.0	 1	 100.0	 10.72; % NG
	338	 55.36	 0.0	 10.0	 -10.0	 1.0	 100.0	 1	 100.0	 10.72; % NG
	345	 450.0	 80.0	 210.0	 -50.0	 1.0	 100.0	 1	 700.0	 200.0; % COW
	346	 450.0	 80.0	 210.0	 -50.0	 1.0	 100.0	 1	 700.0	 200.0; % COW
	351	 250.0	 80.0	 210.0	 -50.0	 1.0	 100.0	 1	 400.0	 100.0; % NG
	354	 62.14	 10.0	 30.0	 -10.0	 1.0	 100.0	 1	 100.0	 24.28; % COW
	358	 250.0	 80.0	 210.0	 -50.0	 1.0	 100.0	 1	 400.0	 100.0; % NG
	360	 128.04	 20.0	 60.0	 -20.0	 1.0	 100.0	 1	 200.0	 56.08; % NG
	361	 128.04	 20.0	 60.0	 -20.0	 1.0	 100.0	 1	 200.0	 56.08; % NG
	362	 128.04	 20.0	 60.0	 -20.0	 1.0	 100.0	 1	 200.0	 56.08; % NG
	363	 128.04	 20.0	 60.0	 -20.0	 1.0	 100.0	 1	 200.0	 56.08; % NG
	364	 51.75	 0.0	 10.0	 -10.0	 1.0	 100.0	 1	 100.0	 3.5; % NG
	365	 131.735	 40.0	 110.0	 -30.0	 1.0	 100.0	 1	 200.0	 63.47; % NG
	368	 128.04	 20.0	 60.0	 -20.0	 1.0	 100.0	 1	 200.0	 56.08; % NG
	369	 128.04	 20.0	 60.0	 -20.0	 1.0	 100.0	 1	 200.0	 56.08; % NG
	382	 184.01	 20.0	 60.0	 -20.0	 1.0	 100.0	 1	 300.0	 68.02; % NG
	383	 184.08	 20.0	 60.0	 -20.0	 1.0	 100.0	 1	 300.0	 68.16; % NG
	392	 50.345	 0.0	 10.0	 -10.0	 1.0	 100.0	 1	 100.0	 0.69; % NG
	394	 62.635	 10.0	 30.0	 -10.0	 1.0	 100.0	 1	 100.0	 25.27; % NG
	395	 62.41	 10.0	 30.0	 -10.0	 1.0	 100.0	 1	 100.0	 24.82; % COW
	396	 128.425	 20.0	 60.0	 -20.0	 1.0	 100.0	 1	 200.0	 56.85; % NG
	400	 131.5	 5.0	 50.0	 -40.0	 1.0	 100.0	 1	 200.0	 63.0; % NG
	405	 61.215	 10.0	 30.0	 -10.0	 1.0	 100.0	 1	 100.0	 22.43; % NG
	406	 61.215	 10.0	 30.0	 -10.0	 1.0	 100.0	 1	 100.0	 22.43; % NG
	408	 61.64	 10.0	 30.0	 -10.0	 1.0	 100.0	 1	 100.0	 23.28; % COW
	423	 50.33	 0.0	 10.0	 -10.0	 1.0	 100.0	 1	 100.0	 0.66; % COW
	432	 51.5	 0.0	 10.0	 -10.0	 1.0	 100.0	 1	 100.0	 3.0; % COW
	433	 60.015	 10.0	 30.0	 -10.0	 1.0	 100.0	 1	 100.0	 20.03; % NG
	438	 56.045	 10.0	 30.0	 -10.0	 1.0	 100.0	 1	 100.0	 12.09; % NG
	442	 60.45	 10.0	 30.0	 -10.0	 1.0	 100.0	 1	 100.0	 20.9; % COW
	448	 58.405	 5.0	 20.0	 -10.0	 1.0	 100.0	 1	 100.0	 16.81; % NG
	454	 52.785	 0.0	 10.0	 -10.0	 1.0	 100.0	 1	 100.0	 5.57; % NG
	458	 60.425	 10.0	 30.0	 -10.0	 1.0	 100.0	 1	 100.0	 20.85; % NG
	463	 36.68	 0.0	 100000.0	 -100000.0	 1.0	 100.0	 1	 100.0	 -26.64; % NG
	470	 124.935	 20.0	 60.0	 -20.0	 1.0	 100.0	 1	 200.0	 49.87; % NG
	476	 300.0	 80.0	 210.0	 -50.0	 1.0	 100.0	 1	 500.0	 100.0; % COW
	477	 62.675	 10.0	 30.0	 -10.0	 1.0	 100.0	 1	 100.0	 25.35; % NG
	480	 129.735	 20.0	 60.0	 -20.0	 1.0	 100.0	 1	 200.0	 59.47; % NG
	481	 129.735	 20.0	 60.0	 -20.0	 1.0	 100.0	 1	 200.0	 59.47; % NG
	482	 129.735	 20.0	 60.0	 -20.0	 1.0	 100.0	 1	 200.0	 59.47; % NG
	483	 129.735	 20.0	 60.0	 -20.0	 1.0	 100.0	 1	 200.0	 59.47; % NG
	485	 450.0	 80.0	 210.0	 -50.0	 1.0	 100.0	 1	 700.0	 200.0; % COW
	492	 350.0	 80.0	 210.0	 -50.0	 1.0	 100.0	 1	 600.0	 100.0; % NG
	496	 121.425	 20.0	 60.0	 -20.0	 1.0	 100.0	 1	 200.0	 42.85; % NG
	508	 1150.0	 200.0	 520.0	 -120.0	 1.0	 100.0	 1	 1800.0	 500.0; % NUC
	509	 1150.0	 200.0	 520.0	 -120.0	 1.0	 100.0	 1	 1800.0	 500.0; % COW
	510	 1150.0	 200.0	 520.0	 -120.0	 1.0	 100.0	 1	 1800.0	 500.0; % NUC
	514	 1150.0	 200.0	 520.0	 -120.0	 1.0	 100.0	 1	 1800.0	 500.0; % COW
	516	 60.855	 10.0	 30.0	 -10.0	 1.0	 100.0	 1	 100.0	 21.71; % NG
	528	 57.885	 10.0	 30.0	 -10.0	 1.0	 100.0	 1	 100.0	 15.77; % COW
	531	 62.93	 10.0	 30.0	 -10.0	 1.0	 100.0	 1	 100.0	 25.86; % COW
	532	 350.0	 80.0	 210.0	 -50.0	 1.0	 100.0	 1	 600.0	 100.0; % NG
	533	 250.0	 60.0	 160.0	 -40.0	 1.0	 100.0	 1	 400.0	 100.0; % NG
	539	 250.0	 25.0	 90.0	 -40.0	 1.0	 100.0	 1	 400.0	 100.0; % NG
	552	 60.2	 0.0	 20.0	 -20.0	 1.0	 100.0	 1	 100.0	 20.4; % NG
	559	 117.165	 0.0	 30.0	 -30.0	 1.0	 100.0	 1	 200.0	 34.33; % NG
	564	 57.255	 10.0	 30.0	 -10.0	 1.0	 100.0	 1	 100.0	 14.51; % NG
	572	 52.335	 0.0	 10.0	 -10.0	 1.0	 100.0	 1	 100.0	 4.67; % NG
	575	 56.03	 10.0	 30.0	 -10.0	 1.0	 100.0	 1	 100.0	 12.06; % NG
	576	 56.03	 10.0	 30.0	 -10.0	 1.0	 100.0	 1	 100.0	 12.06; % NG
	577	 56.03	 10.0	 30.0	 -10.0	 1.0	 100.0	 1	 100.0	 12.06; % NG
	581	 56.03	 10.0	 30.0	 -10.0	 1.0	 100.0	 1	 100.0	 12.06; % NG
	585	 124.205	 20.0	 60.0	 -20.0	 1.0	 100.0	 1	 200.0	 48.41; % NG
	589	 54.46	 0.0	 10.0	 -10.0	 1.0	 100.0	 1	 100.0	 8.92; % NG
	610	 60.65	 10.0	 30.0	 -10.0	 1.0	 100.0	 1	 100.0	 21.3; % COW
	614	 61.605	 15.0	 40.0	 -10.0	 1.0	 100.0	 1	 100.0	 23.21; % NG
	615	 61.605	 15.0	 40.0	 -10.0	 1.0	 100.0	 1	 100.0	 23.21; % NG
	619	 64.165	 15.0	 40.0	 -10.0	 1.0	 100.0	 1	 100.0	 28.33; % NG
	621	 51.935	 0.0	 10.0	 -10.0	 1.0	 100.0	 1	 100.0	 3.87; % COW
	623	 62.01	 10.0	 30.0	 -10.0	 1.0	 100.0	 1	 100.0	 24.02; % COW
	626	 64.43	 20.0	 60.0	 -20.0	 1.0	 100.0	 1	 100.0	 28.86; % NG
	635	 50.045	 0.0	 10.0	 -10.0	 1.0	 100.0	 1	 100.0	 0.09; % NG
	637	 58.405	 10.0	 30.0	 -10.0	 1.0	 100.0	 1	 100.0	 16.81; % NG
	646	 450.0	 80.0	 210.0	 -50.0	 1.0	 100.0	 1	 700.0	 200.0; % COW
	648	 450.0	 80.0	 210.0	 -50.0	 1.0	 100.0	 1	 700.0	 200.0; % COW
	649	 450.0	 80.0	 210.0	 -50.0	 1.0	 100.0	 1	 700.0	 200.0; % COW
	651	 250.0	 80.0	 210.0	 -50.0	 1.0	 100.0	 1	 400.0	 100.0; % NG
	652	 250.0	 80.0	 210.0	 -50.0	 1.0	 100.0	 1	 400.0	 100.0; % COW
	654	 130.8	 20.0	 60.0	 -20.0	 1.0	 100.0	 1	 200.0	 61.6; % NG
	660	 61.07	 10.0	 30.0	 -10.0	 1.0	 100.0	 1	 100.0	 22.14; % COW
	666	 60.435	 10.0	 30.0	 -10.0	 1.0	 100.0	 1	 100.0	 20.87; % NG
	671	 58.4	 5.0	 20.0	 -10.0	 1.0	 100.0	 1	 100.0	 16.8; % NG
	676	 350.0	 60.0	 160.0	 -40.0	 1.0	 100.0	 1	 600.0	 100.0; % NUC
	681	 128.225	 20.0	 60.0	 -20.0	 1.0	 100.0	 1	 200.0	 56.45; % NG
	684	 122.965	 20.0	 60.0	 -20.0	 1.0	 100.0	 1	 200.0	 45.93; % NG
	693	 300.0	 60.0	 160.0	 -40.0	 1.0	 100.0	 1	 500.0	 100.0; % COW
	695	 52.8	 0.0	 10.0	 -10.0	 1.0	 100.0	 1	 100.0	 5.6; % NG
	698	 58.905	 5.0	 20.0	 -10.0	 1.0	 100.0	 1	 100.0	 17.81; % NG
	709	 850.0	 200.0	 520.0	 -120.0	 1.0	 100.0	 1	 1300.0	 400.0; % COW
	715	 57.965	 10.0	 30.0	 -10.0	 1.0	 100.0	 1	 100.0	 15.93; % NG
	717	 57.705	 5.0	 10.0	 0.0	 1.0	 100.0	 1	 100.0	 15.41; % COW
	721	 124.785	 20.0	 60.0	 -20.0	 1.0	 100.0	 1	 200.0	 49.57; % NG
	724	 61.835	 10.0	 30.0	 -10.0	 1.0	 100.0	 1	 100.0	 23.67; % COW
	730	 132.82	 20.0	 60.0	 -20.0	 1.0	 100.0	 1	 200.0	 65.64; % COW
	731	 132.82	 20.0	 60.0	 -20.0	 1.0	 100.0	 1	 200.0	 65.64; % NG
	732	 132.82	 20.0	 60.0	 -20.0	 1.0	 100.0	 1	 200.0	 65.64; % NG
	734	 132.82	 20.0	 60.0	 -20.0	 1.0	 100.0	 1	 200.0	 65.64; % NG
	746	 55.335	 0.0	 10.0	 -10.0	 1.0	 100.0	 1	 100.0	 10.67; % NG
	749	 57.525	 10.0	 30.0	 -10.0	 1.0	 100.0	 1	 100.0	 15.05; % NG
	750	 57.525	 10.0	 30.0	 -10.0	 1.0	 100.0	 1	 100.0	 15.05; % NG
	751	 57.525	 10.0	 30.0	 -10.0	 1.0	 100.0	 1	 100.0	 15.05; % NG
	753	 56.88	 10.0	 30.0	 -10.0	 1.0	 100.0	 1	 100.0	 13.76; % NG
	754	 121.55	 20.0	 60.0	 -20.0	 1.0	 100.0	 1	 200.0	 43.1; % NG
	765	 126.125	 20.0	 60.0	 -20.0	 1.0	 100.0	 1	 200.0	 52.25; % NG
...
];

%% generator cost data
%	2	startup	shutdown	n	c(n-1)	...	c0
mpc.gencost = [
	2	 0.0	 0.0	 3	   0.000000	  27.954228	   0.000000; % NG
	2	 0.0	 0.0	 3	   0.000000	  30.143713	   0.000000; % NG
	2	 0.0	 0.0	 3	   0.000000	  38.023300	   0.000000; % NG
	2	 0.0	 0.0	 3	   0.000000	  51.463262	   0.000000; % NG
	2	 0.0	 0.0	 3	   0.000000	  28.508304	   0.000000; % NG
	2	 0.0	 0.0	 3	   0.000000	  24.808540	   0.000000; % COW
	2	 0.0	 0.0	 3	   0.000000	  25.015714	   0.000000; % COW
	2	 0.0	 0.0	 3	   0.000000	  40.567642	   0.000000; % NG
	2	 0.0	 0.0	 3	   0.000000	  32.120316	   0.000000; % COW
	2	 0.0	 0.0	 3	   0.000000	  24.661962	   0.000000; % NG
	2	 0.0	 0.0	 3	   0.000000	  10.481931	   0.000000; % COW
	2	 0.0	 0.0	 3	   0.000000	  19.669638	   0.000000; % COW
	2	 0.0	 0.0	 3	   0.000000	  26.400897	   0.000000; % NG
	2	 0.0	 0.0	 3	   0.000000	  25.031117	   0.000000; % NG
	2	 0.0	 0.0	 3	   0.000000	  44.242378	   0.000000; % NG
	2	 0.0	 0.0	 3	   0.000000	  50.339155	   0.000000; % NG
	2	 0.0	 0.0	 3	   0.000000	  52.825019	   0.000000; % NG
	2	 0.0	 0.0	 3	   0.000000	  26.377178	   0.000000; % COW
	2	 0.0	 0.0	 3	   0.000000	  34.832187	   0.000000; % NG
	2	 0.0	 0.0	 3	   0.000000	  32.128379	   0.000000; % NG
	2	 0.0	 0.0	 3	   0.000000	  26.316094	   0.000000; % NG
	2	 0.0	 0.0	 3	   0.000000	  35.162551	   0.000000; % NG
	2	 0.0	 0.0	 3	   0.000000	  18.080374	   0.000000; % NG
	2	 0.0	 0.0	 3	   0.000000	  46.336521	   0.000000; % NG
	2	 0.0	 0.0	 3	   0.000000	  50.130798	   0.000000; % NG
	2	 0.0	 0.0	 3	   0.000000	  38.676174	   0.000000; % NG
	2	 0.0	 0.0	 3	   0.000000	  36.196636	   0.000000; % COW
	2	 0.0	 0.0	 3	   0.000000	  22.860664	   0.000000; % NG
	2	 0.0	 0.0	 3	   0.000000	  37.210300	   0.000000; % NG
	2	 0.0	 0.0	 3	   0.000000	  35.695448	   0.000000; % COW
	2	 0.0	 0.0	 3	   0.000000	  35.014750	   0.000000; % NG
	2	 0.0	 0.0	 3	   0.000000	  36.955337	   0.000000; % NG
	2	 0.0	 0.0	 3	   0.000000	  16.737375	   0.000000; % NG
	2	 0.0	 0.0	 3	   0.000000	  18.886235	   0.000000; % COW
	2	 0.0	 0.0	 3	   0.000000	  29.057666	   0.000000; % COW
	2	 0.0	 0.0	 3	   0.000000	  26.641399	   0.000000; % NG
	2	 0.0	 0.0	 3	   0.000000	  30.069068	   0.000000; % NG
	2	 0.0	 0.0	 3	   0.000000	  35.720301	   0.000000; % NG
	2	 0.0	 0.0	 3	   0.000000	  44.940127	   0.000000; % NG
	2	 0.0	 0.0	 3	   0.000000	  23.200856	   0.000000; % COW
	2	 0.0	 0.0	 3	   0.000000	  32.879743	   0.000000; % COW
	2	 0.0	 0.0	 3	   0.000000	  34.567664	   0.000000; % COW
	2	 0.0	 0.0	 3	   0.000000	  50.488486	   0.000000; % NG
	2	 0.0	 0.0	 3	   0.000000	  34.505449	   0.000000; % NG
	2	 0.0	 0.0	 3	   0.000000	   6.756078	   0.000000; % NUC
	2	 0.0	 0.0	 3	   0.000000	  39.927862	   0.000000; % NG
	2	 0.0	 0.0	 3	   0.000000	  25.641926	   0.000000; % NG
	2	 0.0	 0.0	 3	   0.000000	  13.552185	   0.000000; % COW
	2	 0.0	 0.0	 3	   0.000000	  37.917450	   0.000000; % NG
	2	 0.0	 0.0	 3	   0.000000	  23.221093	   0.000000; % NG
	2	 0.0	 0.0	 3	   0.000000	  41.129152	   0.000000; % NG
	2	 0.0	 0.0	 3	   0.000000	  28.349309	   0.000000; % NG
	2	 0.0	 0.0	 3	   0.000000	  27.946972	   0.000000; % COW
	2	 0.0	 0.0	 3	   0.000000	  41.060699	   0.000000; % NG
	2	 0.0	 0.0	 3	   0.000000	  27.294041	   0.000000; % NG
	2	 0.0	 0.0	 3	   0.000000	  32.316737	   0.000000; % COW
	2	 0.0	 0.0	 3	   0.000000	  32.022137	   0.000000; % COW
	2	 0.0	 0.0	 3	   0.000000	  40.725019	   0.000000; % NG
	2	 0.0	 0.0	 3	   0.000000	  45.652507	   0.000000; % NG
	2	 0.0	 0.0	 3	   0.000000	  29.102393	   0.000000; % COW
	2	 0.0	 0.0	 3	   0.000000	  17.361215	   0.000000; % COW
	2	 0.0	 0.0	 3	   0.000000	  21.185940	   0.000000; % COW
	2	 0.0	 0.0	 3	   0.000000	  56.255608	   0.000000; % NG
	2	 0.0	 0.0	 3	   0.000000	  25.118419	   0.000000; % NG
	2	 0.0	 0.0	 3	   0.000000	  27.942449	   0.000000; % COW
	2	 0.0	 0.0	 3	   0.000000	  54.916011	   0.000000; % NG
	2	 0.0	 0.0	 3	   0.000000	  44.841073	   0.000000; % NG
	2	 0.0	 0.0	 3	   0.000000	  40.268096	   0.000000; % NG
	2	 0.0	 0.0	 3	   0.000000	  33.360233	   0.000000; % NG
	2	 0.0	 0.0	 3	   0.000000	  39.482304	   0.000000; % NG
	2	 0.0	 0.0	 3	   0.000000	  28.612526	   0.000000; % COW
	2	 0.0	 0.0	 3	   0.000000	  36.673979	   0.000000; % COW
	2	 0.0	 0.0	 3	   0.000000	  44.346833	   0.000000; % NG
	2	 0.0	 0.0	 3	   0.000000	   9.850911	   0.000000; % COW
	2	 0.0	 0.0	 3	   0.000000	  17.961633	   0.000000; % COW
	2	 0.0	 0.0	 3	   0.000000	  47.879405	   0.000000; % NG
	2	 0.0	 0.0	 3	   0.000000	  24.682295	   0.000000; % COW
	2	 0.0	 0.0	 3	   0.000000	  25.955846	   0.000000; % NG
	2	 0.0	 0.0	 3	   0.000000	  27.815055	   0.000000; % COW
	2	 0.0	 0.0	 3	   0.000000	  28.395029	   0.000000; % NG
	2	 0.0	 0.0	 3	   0.000000	  27.648114	   0.000000; % NG
	2	 0.0	 0.0	 3	   0.000000	  23.687958	   0.000000; % NG
	2	 0.0	 0.0	 3	   0.000000	  23.088330	   0.000000; % COW
	2	 0.0	 0.0	 3	   0.000000	  26.520964	   0.000000; % COW
	2	 0.0	 0.0	 3	   0.000000	  30.244256	   0.000000; % NG
	2	 0.0	 0.0	 3	   0.000000	  55.006030	   0.000000; % NG
	2	 0.0	 0.0	 3	   0.000000	  56.557792	   0.000000; % NG
	2	 0.0	 0.0	 3	   0.000000	  38.802205	   0.000000; % NG
	2	 0.0	 0.0	 3	   0.000000	  42.115886	   0.000000; % NG
	2	 0.0	 0.0	 3	   0.000000	  13.523820	   0.000000; % NG
	2	 0.0	 0.0	 3	   0.000000	   9.541324	   0.000000; % COW
	2	 0.0	 0.0	 3	   0.000000	  42.895105	   0.000000; % NG
	2	 0.0	 0.0	 3	   0.000000	  30.531307	   0.000000; % COW
	2	 0.0	 0.0	 3	   0.000000	  21.243375	   0.000000; % NG
	2	 0.0	 0.0	 3	   0.000000	  26.132596	   0.000000; % NG
	2	 0.0	 0.0	 3	   0.000000	  27.469462	   0.000000; % NG
	2	 0.0	 0.0	 3	   0.000000	  37.188084	   0.000000; % NG
	2	 0.0	 0.0	 3	   0.000000	  24.797374	   0.000000; % NG
	2	 0.0	 0.0	 3	   0.000000	   2.807034	   0.000000; % COW
	2	 0.0	 0.0	 3	   0.000000	  38.330795	   0.000000; % COW
	2	 0.0	 0.0	 3	   0.000000	  15.797323	   0.000000; % NG
	2	 0.0	 0.0	 3	   0.000000	  37.691261	   0.000000; % COW
	2	 0.0	 0.0	 3	   0.000000	  37.092772	   0.000000; % NG
	2	 0.0	 0.0	 3	   0.000000	  43.022659	   0.000000; % NG
	2	 0.0	 0.0	 3	   0.000000	  42.206209	   0.000000; % NG
	2	 0.0	 0.0	 3	   0.000000	  43.679004	   0.000000; % NG
	2	 0.0	 0.0	 3	   0.000000	  18.085532	   0.000000; % NG
	2	 0.0	 0.0	 3	   0.000000	  29.229155	   0.000000; % NG
	2	 0.0	 0.0	 3	   0.000000	  43.233444	   0.000000; % NG
	2	 0.0	 0.0	 3	   0.000000	  31.780348	   0.000000; % NG
	2	 0.0	 0.0	 3	   0.000000	  47.266202	   0.000000; % NG
	2	 0.0	 0.0	 3	   0.000000	  21.698023	   0.000000; % NG
	2	 0.0	 0.0	 3	   0.000000	  30.002466	   0.000000; % NG
	2	 0.0	 0.0	 3	   0.000000	  25.961595	   0.000000; % NG
	2	 0.0	 0.0	 3	   0.000000	  21.257100	   0.000000; % NG
	2	 0.0	 0.0	 3	   0.000000	  20.566299	   0.000000; % COW
	2	 0.0	 0.0	 3	   0.000000	  33.960736	   0.000000; % NG
	2	 0.0	 0.0	 3	   0.000000	  25.781055	   0.000000; % NG
	2	 0.0	 0.0	 3	   0.000000	  33.191530	   0.000000; % NG
	2	 0.0	 0.0	 3	   0.000000	  28.822356	   0.000000; % NG
	2	 0.0	 0.0	 3	   0.000000	  19.962398	   0.000000; % COW
	2	 0.0	 0.0	 3	   0.000000	  25.802543	   0.000000; % COW
	2	 0.0	 0.0	 3	   0.000000	  17.037271	   0.000000; % COW
	2	 0.0	 0.0	 3	   0.000000	  10.803317	   0.000000; % NG
	2	 0.0	 0.0	 3	   0.000000	  23.884582	   0.000000; % NG
	2	 0.0	 0.0	 3	   0.000000	  22.591668	   0.000000; % COW
	2	 0.0	 0.0	 3	   0.000000	  24.389730	   0.000000; % NG
	2	 0.0	 0.0	 3	   0.000000	  27.024243	   0.000000; % NG
	2	 0.0	 0.0	 3	   0.000000	  32.776801	   0.000000; % NG
	2	 0.0	 0.0	 3	   0.000000	  36.706552	   0.000000; % NG
	2	 0.0	 0.0	 3	   0.000000	  41.255239	   0.000000; % NG
	2	 0.0	 0.0	 3	   0.000000	  33.330803	   0.000000; % COW
	2	 0.0	 0.0	 3	   0.000000	  42.334739	   0.000000; % NG
	2	 0.0	 0.0	 3	   0.000000	  19.165927	   0.000000; % NG
	2	 0.0	 0.0	 3	   0.000000	  33.607600	   0.000000; % NG
	2	 0.0	 0.0	 3	   0.000000	  52.280667	   0.000000; % NG
	2	 0.0	 0.0	 3	   0.000000	  36.346690	   0.000000; % NG
	2	 0.0	 0.0	 3	   0.000000	  31.509925	   0.000000; % COW
	2	 0.0	 0.0	 3	   0.000000	  38.709892	   0.000000; % NG
	2	 0.0	 0.0	 3	   0.000000	  37.001340	   0.000000; % NG
	2	 0.0	 0.0	 3	   0.000000	   7.817212	   0.000000; % NUC
	2	 0.0	 0.0	 3	   0.000000	  28.307705	   0.000000; % COW
	2	 0.0	 0.0	 3	   0.000000	   7.727480	   0.000000; % NUC
	2	 0.0	 0.0	 3	   0.000000	  31.844451	   0.000000; % COW
	2	 0.0	 0.0	 3	   0.000000	  37.050856	   0.000000; % NG
	2	 0.0	 0.0	 3	   0.000000	  31.201224	   0.000000; % COW
	2	 0.0	 0.0	 3	   0.000000	  25.167792	   0.000000; % COW
	2	 0.0	 0.0	 3	   0.000000	  55.853240	   0.000000; % NG
	2	 0.0	 0.0	 3	   0.000000	  33.074043	   0.000000; % NG
	2	 0.0	 0.0	 3	   0.000000	  32.702483	   0.000000; % NG
	2	 0.0	 0.0	 3	   0.000000	  33.829440	   0.000000; % NG
	2	 0.0	 0.0	 3	   0.000000	  33.232632	   0.000000; % NG
	2	 0.0	 0.0	 3	   0.000000	  33.893354	   0.000000; % NG
	2	 0.0	 0.0	 3	   0.000000	  19.159760	   0.000000; % NG
	2	 0.0	 0.0	 3	   0.000000	  52.733756	   0.000000; % NG
	2	 0.0	 0.0	 3	   0.000000	  12.561403	   0.000000; % NG
	2	 0.0	 0.0	 3	   0.000000	  29.657106	   0.000000; % NG
	2	 0.0	 0.0	 3	   0.000000	  31.494973	   0.000000; % NG
	2	 0.0	 0.0	 3	   0.000000	   5.844693	   0.000000; % NG
	2	 0.0	 0.0	 3	   0.000000	  33.208792	   0.000000; % NG
	2	 0.0	 0.0	 3	   0.000000	  13.388423	   0.000000; % COW
	2	 0.0	 0.0	 3	   0.000000	  50.799253	   0.000000; % NG
	2	 0.0	 0.0	 3	   0.000000	  61.398490	   0.000000; % NG
	2	 0.0	 0.0	 3	   0.000000	  45.218817	   0.000000; % NG
	2	 0.0	 0.0	 3	   0.000000	  27.364734	   0.000000; % COW
	2	 0.0	 0.0	 3	   0.000000	  22.791247	   0.000000; % COW
	2	 0.0	 0.0	 3	   0.000000	  37.236281	   0.000000; % NG
	2	 0.0	 0.0	 3	   0.000000	  15.262407	   0.000000; % NG
	2	 0.0	 0.0	 3	   0.000000	  35.093584	   0.000000; % NG
	2	 0.0	 0.0	 3	   0.000000	  22.026018	   0.000000; % COW
	2	 0.0	 0.0	 3	   0.000000	  17.210590	   0.000000; % COW
	2	 0.0	 0.0	 3	   0.000000	  17.497695	   0.000000; % COW
	2	 0.0	 0.0	 3	   0.000000	  31.809831	   0.000000; % NG
	2	 0.0	 0.0	 3	   0.000000	  27.131772	   0.000000; % COW
	2	 0.0	 0.0	 3	   0.000000	   8.724450	   0.000000; % NG
	2	 0.0	 0.0	 3	   0.000000	  20.033813	   0.000000; % COW
	2	 0.0	 0.0	 3	   0.000000	  24.904989	   0.000000; % NG
	2	 0.0	 0.0	 3	   0.000000	  30.783500	   0.000000; % NG
	2	 0.0	 0.0	 3	   0.000000	   7.212610	   0.000000; % NUC
	2	 0.0	 0.0	 3	   0.000000	  24.133309	   0.000000; % NG
	2	 0.0	 0.0	 3	   0.000000	  31.831396	   0.000000; % NG
	2	 0.0	 0.0	 3	   0.000000	  27.026804	   0.000000; % COW
	2	 0.0	 0.0	 3	   0.000000	  32.298717	   0.000000; % NG
	2	 0.0	 0.0	 3	   0.000000	  32.611810	   0.000000; % NG
	2	 0.0	 0.0	 3	   0.000000	  14.350541	   0.000000; % COW
	2	 0.0	 0.0	 3	   0.000000	  37.706440	   0.000000; % NG
	2	 0.0	 0.0	 3	   0.000000	  25.677674	   0.000000; % COW
	2	 0.0	 0.0	 3	   0.000000	  38.305847	   0.000000; % NG
	2	 0.0	 0.0	 3	   0.000000	  30.627595	   0.000000; % COW
	2	 0.0	 0.0	 3	   0.000000	  40.028120	   0.000000; % COW
	2	 0.0	 0.0	 3	   0.000000	  42.239015	   0.000000; % NG
	2	 0.0	 0.0	 3	   0.000000	  51.867892	   0.000000; % NG
	2	 0.0	 0.0	 3	   0.000000	  14.573395	   0.000000; % NG
	2	 0.0	 0.0	 3	   0.000000	  31.444624	   0.000000; % NG
	2	 0.0	 0.0	 3	   0.000000	  36.224722	   0.000000; % NG
	2	 0.0	 0.0	 3	   0.000000	  26.487608	   0.000000; % NG
	2	 0.0	 0.0	 3	   0.000000	  43.282317	   0.000000; % NG
	2	 0.0	 0.0	 3	   0.000000	  28.198563	   0.000000; % NG
	2	 0.0	 0.0	 3	   0.000000	  41.156531	   0.000000; % NG
	2	 0.0	 0.0	 3	   0.000000	  49.043926	   0.000000; % NG
...
];

%% branch data
%	fbus	tbus	r	x	b	rateA	rateB	rateC	ratio	angle	status	angmin	angmax
mpc.branch = [
	7519	 4482	 0.0006	 0.00616	 0.0	 5104	 5104	 5104	 0.0	 0.0	 1	 -30.0	 30.0;
	7519	 11823	 0.0005	 0.0074	 0.0	 4259	 4259	 4259	 0.0	 0.0	 1	 -30.0	 30.0;
	3073	 4516	 0.00107	 0.00626	 0.0	 4974	 4974	 4974	 0.0	 0.0	 1	 -30.0	 30.0;
	3073	 4706	 0.000841	 0.0055	 0.0	 5678	 5678	 5678	 0.0	 0.0	 1	 -30.0	 30.0;
	5157	 1032	 0.00143	 0.01563	 0.0	 2013	 2013	 2013	 0.0	 0.0	 1	 -30.0	 30.0;
	5157	 6653	 0.00146	 0.01692	 0.0	 1860	 1860	 1860	 0.0	 0.0	 1	 -30.0	 30.0;
	628	 7896	 7e-05	 0.00057	 0.0	 55004	 55004	 55004	 0.0	 0.0	 1	 -30.0	 30.0;
	628	 6592	 6e-05	 0.00056	 0.0	 56085	 56085	 56085	 0.0	 0.0	 1	 -30.0	 30.0;
	11792	 10888	 0.003349	 0.01656	 0.0	 1870	 1870	 1870	 0.0	 0.0	 1	 -30.0	 30.0;
	11792	 4609	 0.003409	 0.016211	 0.0	 1907	 1907	 1907	 0.0	 0.0	 1	 -30.0	 30.0;
	6573	 10888	 0.003479	 0.01586	 0.0	 1946	 1946	 1946	 0.0	 0.0	 1	 -30.0	 30.0;
	6573	 4609	 0.003099	 0.017969	 0.0	 1733	 1733	 1733	 0.0	 0.0	 1	 -30.0	 30.0;
	782	 13300	 0.00127	 0.01842	 0.0	 1711	 1711	 1711	 0.0	 0.0	 1	 -30.0	 30.0;
	782	 1186	 0.00126	 0.01847	 0.0	 1707	 1707	 1707	 0.0	 0.0	 1	 -30.0	 30.0;
	11715	 924	 0.0013	 0.01808	 0.0	 1743	 1743	 1743	 0.0	 0.0	 1	 -30.0	 30.0;
	11715	 12182	 0.00131	 0.01765	 0.0	 1785	 1785	 1785	 0.0	 0.0	 1	 -30.0	 30.0;
	10257	 2582	 0.00065	 0.01311	 0.0	 2891	 2891	 2891	 0.0	 0.0	 1	 -30.0	 30.0;
	10257	 9363	 0.00067	 0.00974	 0.0	 3851	 3851	 3851	 0.0	 0.0	 1	 -30.0	 30.0;
	7595	 11501	 0.00236	 0.01418	 0.0	 2198	 2198	 2198	 0.0	 0.0	 1	 -30.0	 30.0;
	7595	 11390	 0.002169	 0.015909	 0.0	 1968	 1968	 1968	 0.0	 0.0	 1	 -30.0	 30.0;
	6873	 1806	 0.00027	 0.00254	 0.0	 12367	 12367	 12367	 0.0	 0.0	 1	 -30.0	 30.0;
	6873	 11151	 0.00027	 0.00259	 0.0	 12131	 12131	 12131	 0.0	 0.0	 1	 -30.0	 30.0;
	11949	 1806	 0.00033	 0.00302	 0.0	 10398	 10398	 10398	 0.0	 0.0	 1	 -30.0	 30.0;
	11949	 1269	 0.00029	 0.00312	 0.0	 10081	 10081	 10081	 0.0	 0.0	 1	 -30.0	 30.0;
	2623	 3359	 0.000289	 0.00137	 0.0	 22560	 22560	 22560	 0.0	 0.0	 1	 -30.0	 30.0;
	2623	 11159	 0.000219	 0.00263	 0.0	 11969	 11969	 11969	 0.0	 0.0	 1	 -30.0	 30.0;
	3020	 3359	 0.000289	 0.001341	 0.0	 23027	 23027	 23027	 0.0	 0.0	 1	 -30.0	 30.0;
	3020	 12995	 0.000229	 0.00257	 0.0	 12243	 12243	 12243	 0.0	 0.0	 1	 -30.0	 30.0;
	9670	 3359	 0.000841	 0.00689	 0.0	 4551	 4551	 4551	 0.0	 0.0	 1	 -30.0	 30.0;
	9670	 2360	 0.000979	 0.00586	 0.0	 5317	 5317	 5317	 0.0	 0.0	 1	 -30.0	 30.0;
	8390	 3359	 0.00014	 0.0012	 0.0	 26146	 26146	 26146	 0.0	 0.0	 1	 -30.0	 30.0;
	8390	 11515	 0.000211	 0.001539	 0.0	 20335	 20335	 20335	 0.0	 0.0	 1	 -30.0	 30.0;
	12630	 3359	 0.000401	 0.004901	 0.0	 6424	 6424	 6424	 0.0	 0.0	 1	 -30.0	 30.0;
	12630	 11515	 0.000219	 0.00151	 0.0	 20703	 20703	 20703	 0.0	 0.0	 1	 -30.0	 30.0;
	3340	 3359	 0.000729	 0.004539	 0.0	 6872	 6872	 6872	 0.0	 0.0	 1	 -30.0	 30.0;
	3340	 3953	 0.00062	 0.00482	 0.0	 6500	 6500	 6500	 0.0	 0.0	 1	 -30.0	 30.0;
	7444	 8848	 0.00052	 0.00407	 0.0	 7699	 7699	 7699	 0.0	 0.0	 1	 -30.0	 30.0;
	7444	 5026	 0.00034	 0.00502	 0.0	 6278	 6278	 6278	 0.0	 0.0	 1	 -30.0	 30.0;
	11055	 8848	 0.00065	 0.00698	 0.0	 4506	 4506	 4506	 0.0	 0.0	 1	 -30.0	 30.0;
	11055	 13067	 0.00059	 0.00806	 0.0	 3909	 3909	 3909	 0.0	 0.0	 1	 -30.0	 30.0;
	9857	 13125	 0.00063	 0.00464	 0.0	 6746	 6746	 6746	 0.0	 0.0	 1	 -30.0	 30.0;
	9857	 12598	 0.000599	 0.005099	 0.0	 6153	 6153	 6153	 0.0	 0.0	 1	 -30.0	 30.0;
	7256	 7011	 0.00064	 0.00307	 0.0	 10073	 10073	 10073	 0.0	 0.0	 1	 -30.0	 30.0;
	7256	 11232	 0.000659	 0.003	 0.0	 10284	 10284	 10284	 0.0	 0.0	 1	 -30.0	 30.0;
	12732	 9895	 0.00053	 0.00528	 0.0	 5953	 5953	 5953	 0.0	 0.0	 1	 -30.0	 30.0;
	12732	 4416	 0.00056	 0.0053	 0.0	 5927	 5927	 5927	 0.0	 0.0	 1	 -30.0	 30.0;
	4494	 7011	 0.0018	 0.007919	 0.0	 3890	 3890	 3890	 0.0	 0.0	 1	 -30.0	 30.0;
	4494	 10481	 0.001651	 0.00862	 0.0	 3600	 3600	 3600	 0.0	 0.0	 1	 -30.0	 30.0;
	7913	 9895	 0.00045	 0.00545	 0.0	 5777	 5777	 5777	 0.0	 0.0	 1	 -30.0	 30.0;
	7913	 1269	 0.00052	 0.00476	 0.0	 6597	 6597	 6597	 0.0	 0.0	 1	 -30.0	 30.0;
	3258	 10043	 0.01286	 0.037421	 0.0	 799	 799	 799	 0.0	 0.0	 1	 -30.0	 30.0;
	3258	 8238	 0.032397	 0.123	 0.0	 249	 249	 249	 0.0	 0.0	 1	 -30.0	 30.0;
	697	 10043	 0.032851	 0.069727	 0.0	 410	 410	 410	 0.0	 0.0	 1	 -30.0	 30.0;
	697	 11841	 0.059942	 0.112802	 0.0	 248	 248	 248	 0.0	 0.0	 1	 -30.0	 30.0;
	11629	 10942	 0.00011	 0.00109	 0.0	 28833	 28833	 28833	 0.0	 0.0	 1	 -30.0	 30.0;
	11629	 13171	 0.00011	 0.00107	 0.0	 29367	 29367	 29367	 0.0	 0.0	 1	 -30.0	 30.0;
	9089	 11260	 0.000461	 0.00395	 0.0	 7943	 7943	 7943	 0.0	 0.0	 1	 -30.0	 30.0;
	9089	 7609	 0.000599	 0.003789	 0.0	 8235	 8235	 8235	 0.0	 0.0	 1	 -30.0	 30.0;
	13119	 3581	 0.00173	 0.01542	 0.0	 2423	 2423	 2423	 0.0	 0.0	 1	 -30.0	 30.0;
	13119	 6381	 0.00166	 0.02083	 0.0	 1799	 1799	 1799	 0.0	 0.0	 1	 -30.0	 30.0;
	5075	 13106	 0.006314	 0.018488	 0.0	 1617	 1617	 1617	 0.0	 0.0	 1	 -30.0	 30.0;
	5075	 9503	 0.015727	 0.037669	 0.0	 774	 774	 774	 0.0	 0.0	 1	 -30.0	 30.0;
	11048	 10312	 0.00374	 0.02095	 0.0	 1485	 1485	 1485	 0.0	 0.0	 1	 -30.0	 30.0;
	11048	 3185	 0.00511	 0.019461	 0.0	 1570	 1570	 1570	 0.0	 0.0	 1	 -30.0	 30.0;
	1538	 4109	 0.011281	 0.050771	 0.0	 608	 608	 608	 0.0	 0.0	 1	 -30.0	 30.0;
	1538	 3721	 0.0115	 0.049719	 0.0	 619	 619	 619	 0.0	 0.0	 1	 -30.0	 30.0;
	5803	 4109	 0.011719	 0.048659	 0.0	 632	 632	 632	 0.0	 0.0	 1	 -30.0	 30.0;
	5803	 3721	 0.01193	 0.047599	 0.0	 644	 644	 644	 0.0	 0.0	 1	 -30.0	 30.0;
	189	 4268	 0.00064	 0.00715	 0.0	 4401	 4401	 4401	 0.0	 0.0	 1	 -30.0	 30.0;
	189	 11488	 0.00089	 0.00712	 0.0	 4403	 4403	 4403	 0.0	 0.0	 1	 -30.0	 30.0;
	7384	 1009	 0.00048	 0.00555	 0.0	 5671	 5671	 5671	 0.0	 0.0	 1	 -30.0	 30.0;
	7384	 11547	 0.00047	 0.00566	 0.0	 5562	 5562	 5562	 0.0	 0.0	 1	 -30.0	 30.0;
	11070	 1009	 0.00046	 0.00524	 0.0	 6006	 6006	 6006	 0.0	 0.0	 1	 -30.0	 30.0;
	11070	 11547	 0.00052	 0.00514	 0.0	 6115	 6115	 6115	 0.0	 0.0	 1	 -30.0	 30.0;
	2061	 6603	 0.00438	 0.010686	 0.0	 2736	 2736	 2736	 0.0	 0.0	 1	 -30.0	 30.0;
	2061	 9733	 0.031347	 0.062653	 0.0	 451	 451	 451	 0.0	 0.0	 1	 -30.0	 30.0;
	9502	 7241	 0.00029	 0.00298	 0.0	 10550	 10550	 10550	 0.0	 0.0	 1	 -30.0	 30.0;
	9502	 8865	 0.0003	 0.00291	 0.0	 10798	 10798	 10798	 0.0	 0.0	 1	 -30.0	 30.0;
	12336	 13321	 0.00155	 0.01529	 0.0	 2469	 2469	 2469	 0.0	 0.0	 1	 -30.0	 30.0;
	12336	 494	 0.00148	 0.0152	 0.0	 2462	 2462	 2462	 0.0	 0.0	 1	 -30.0	 30.0;
	13540	 11971	 0.000169	 0.00096	 0.0	 32406	 32406	 32406	 0.0	 0.0	 1	 -30.0	 30.0;
	13540	 330	 0.000182	 0.000942	 0.0	 32924	 32924	 32924	 0.0	 0.0	 1	 -30.0	 30.0;
	8250	 622	 0.00016	 0.00184	 0.0	 17103	 17103	 17103	 0.0	 0.0	 1	 -30.0	 30.0;
	8250	 8646	 0.00022	 0.00287	 0.0	 10974	 10974	 10974	 0.0	 0.0	 1	 -30.0	 30.0;
	5656	 9506	 0.00015	 0.00187	 0.0	 16838	 16838	 16838	 0.0	 0.0	 1	 -30.0	 30.0;
	5656	 7003	 0.00022	 0.00266	 0.0	 11835	 11835	 11835	 0.0	 0.0	 1	 -30.0	 30.0;
	8767	 13151	 0.00138	 0.0174	 0.0	 2154	 2154	 2154	 0.0	 0.0	 1	 -30.0	 30.0;
	8767	 256	 0.00272	 0.0288	 0.0	 1300	 1300	 1300	 0.0	 0.0	 1	 -30.0	 30.0;
	11952	 7565	 0.00065	 0.01024	 0.0	 3079	 3079	 3079	 0.0	 0.0	 1	 -30.0	 30.0;
	11952	 8750	 0.00073	 0.01004	 0.0	 3138	 3138	 3138	 0.0	 0.0	 1	 -30.0	 30.0;
	13220	 7565	 0.00075	 0.00983	 0.0	 3205	 3205	 3205	 0.0	 0.0	 1	 -30.0	 30.0;
	13220	 8750	 0.00076	 0.00963	 0.0	 3270	 3270	 3270	 0.0	 0.0	 1	 -30.0	 30.0;
	10465	 10831	 0.00042	 0.02666	 0.0	 1410	 1410	 1410	 0.0	 0.0	 1	 -30.0	 30.0;
	8079	 10358	 0.00029	 0.0026	 0.0	 12075	 12075	 12075	 0.0	 0.0	 1	 -30.0	 30.0;
	8079	 8404	 0.00022	 0.00303	 0.0	 10398	 10398	 10398	 0.0	 0.0	 1	 -30.0	 30.0;
	7197	 5524	 0.001	 0.006159	 0.0	 5063	 5063	 5063	 0.0	 0.0	 1	 -30.0	 30.0;
	7197	 11931	 0.00113	 0.00657	 0.0	 4739	 4739	 4739	 0.0	 0.0	 1	 -30.0	 30.0;
	1721	 12153	 0.0013	 0.01277	 0.0	 2929	 2929	 2929	 0.0	 0.0	 1	 -30.0	 30.0;
	1721	 10744	 0.00163	 0.01808	 0.0	 2071	 2071	 2071	 0.0	 0.0	 1	 -30.0	 30.0;
	8400	 850	 0.00047	 0.00406	 0.0	 9198	 9198	 9198	 0.0	 0.0	 1	 -30.0	 30.0;
	8400	 8575	 0.00235	 0.02343	 0.0	 1597	 1597	 1597	 0.0	 0.0	 1	 -30.0	 30.0;
	9020	 2201	 0.00036	 0.00445	 0.0	 7076	 7076	 7076	 0.0	 0.0	 1	 -30.0	 30.0;
	9020	 2350	 0.00017	 0.0025	 0.0	 12606	 12606	 12606	 0.0	 0.0	 1	 -30.0	 30.0;
	6435	 2201	 0.00036	 0.00436	 0.0	 7221	 7221	 7221	 0.0	 0.0	 1	 -30.0	 30.0;
	6435	 3448	 0.00017	 0.00255	 0.0	 12360	 12360	 12360	 0.0	 0.0	 1	 -30.0	 30.0;
	3223	 4642	 0.00096	 0.00995	 0.0	 3761	 3761	 3761	 0.0	 0.0	 1	 -30.0	 30.0;
	3223	 9919	 0.00152	 0.01949	 0.0	 1923	 1923	 1923	 0.0	 0.0	 1	 -30.0	 30.0;
	7755	 4642	 0.00094	 0.01014	 0.0	 3692	 3692	 3692	 0.0	 0.0	 1	 -30.0	 30.0;
	7755	 9919	 0.00149	 0.01986	 0.0	 1888	 1888	 1888	 0.0	 0.0	 1	 -30.0	 30.0;
	4129	 4642	 0.00107	 0.01243	 0.0	 3014	 3014	 3014	 0.0	 0.0	 1	 -30.0	 30.0;
	4129	 3715	 0.00102	 0.01034	 0.0	 3618	 3618	 3618	 0.0	 0.0	 1	 -30.0	 30.0;
	5471	 7106	 0.0047	 0.02061	 0.0	 1495	 1495	 1495	 0.0	 0.0	 1	 -30.0	 30.0;
	5471	 5434	 0.00739	 0.040531	 0.0	 767	 767	 767	 0.0	 0.0	 1	 -30.0	 30.0;
	8834	 12770	 0.00049	 0.00611	 0.0	 6133	 6133	 6133	 0.0	 0.0	 1	 -30.0	 30.0;
	8834	 10744	 0.00035	 0.00431	 0.0	 8694	 8694	 8694	 0.0	 0.0	 1	 -30.0	 30.0;
	7831	 1467	 0.00261	 0.01344	 0.0	 2308	 2308	 2308	 0.0	 0.0	 1	 -30.0	 30.0;
	7831	 5173	 0.003521	 0.019591	 0.0	 1587	 1587	 1587	 0.0	 0.0	 1	 -30.0	 30.0;
	10033	 5005	 0.0025	 0.01419	 0.0	 2193	 2193	 2193	 0.0	 0.0	 1	 -30.0	 30.0;
	10033	 7387	 0.00287	 0.0237	 0.0	 1324	 1324	 1324	 0.0	 0.0	 1	 -30.0	 30.0;
	9789	 9848	 0.00088	 0.00956	 0.0	 3952	 3952	 3952	 0.0	 0.0	 1	 -30.0	 30.0;
	9789	 430	 0.00095	 0.00877	 0.0	 3581	 3581	 3581	 0.0	 0.0	 1	 -30.0	 30.0;
	2916	 1094	 0.00332	 0.020651	 0.0	 1511	 1511	 1511	 0.0	 0.0	 1	 -30.0	 30.0;
	2916	 2869	 0.003969	 0.018781	 0.0	 1646	 1646	 1646	 0.0	 0.0	 1	 -30.0	 30.0;
	4142	 3925	 0.002849	 0.014909	 0.0	 2082	 2082	 2082	 0.0	 0.0	 1	 -30.0	 30.0;
	4142	 2245	 0.00439	 0.02451	 0.0	 1269	 1269	 1269	 0.0	 0.0	 1	 -30.0	 30.0;
	123	 12854	 0.0002	 0.0018	 0.0	 17442	 17442	 17442	 0.0	 0.0	 1	 -30.0	 30.0;
	123	 12369	 0.00025	 0.00261	 0.0	 12048	 12048	 12048	 0.0	 0.0	 1	 -30.0	 30.0;
	10806	 12854	 0.0002	 0.00176	 0.0	 17833	 17833	 17833	 0.0	 0.0	 1	 -30.0	 30.0;
	10806	 1112	 0.00025	 0.00255	 0.0	 12329	 12329	 12329	 0.0	 0.0	 1	 -30.0	 30.0;
	12593	 9027	 0.012488	 0.047413	 0.0	 645	 645	 645	 0.0	 0.0	 1	 -30.0	 30.0;
	12593	 455	 0.010479	 0.027711	 0.0	 1067	 1067	 1067	 0.0	 0.0	 1	 -30.0	 30.0;
	3745	 10922	 0.00044	 0.00428	 0.0	 7342	 7342	 7342	 0.0	 0.0	 1	 -30.0	 30.0;
	3745	 1898	 0.00036	 0.00475	 0.0	 6631	 6631	 6631	 0.0	 0.0	 1	 -30.0	 30.0;
	6938	 7640	 0.00058	 0.00534	 0.0	 5881	 5881	 5881	 0.0	 0.0	 1	 -30.0	 30.0;
	6938	 4543	 0.00054	 0.00589	 0.0	 5341	 5341	 5341	 0.0	 0.0	 1	 -30.0	 30.0;
	4229	 2024	 0.00206	 0.02057	 0.0	 1528	 1528	 1528	 0.0	 0.0	 1	 -30.0	 30.0;
	4229	 9388	 0.00077	 0.00872	 0.0	 3609	 3609	 3609	 0.0	 0.0	 1	 -30.0	 30.0;
	5543	 13575	 0.00161	 0.01963	 0.0	 1604	 1604	 1604	 0.0	 0.0	 1	 -30.0	 30.0;
	5543	 9388	 0.00075	 0.00888	 0.0	 3545	 3545	 3545	 0.0	 0.0	 1	 -30.0	 30.0;
	2764	 10638	 0.00016	 0.00152	 0.0	 20667	 20667	 20667	 0.0	 0.0	 1	 -30.0	 30.0;
	2764	 10338	 0.00019	 0.00163	 0.0	 19249	 19249	 19249	 0.0	 0.0	 1	 -30.0	 30.0;
	7963	 10638	 0.00015	 0.0016	 0.0	 19656	 19656	 19656	 0.0	 0.0	 1	 -30.0	 30.0;
	7963	 10338	 0.00015	 0.00183	 0.0	 17204	 17204	 17204	 0.0	 0.0	 1	 -30.0	 30.0;
	5383	 4802	 0.00121	 0.01426	 0.0	 2208	 2208	 2208	 0.0	 0.0	 1	 -30.0	 30.0;
	5383	 8035	 0.00116	 0.01456	 0.0	 2163	 2163	 2163	 0.0	 0.0	 1	 -30.0	 30.0;
	663	 204	 0.00068	 0.00727	 0.0	 4327	 4327	 4327	 0.0	 0.0	 1	 -30.0	 30.0;
	663	 6973	 0.0007	 0.00734	 0.0	 4285	 4285	 4285	 0.0	 0.0	 1	 -30.0	 30.0;
	11598	 204	 0.00076	 0.00712	 0.0	 4412	 4412	 4412	 0.0	 0.0	 1	 -30.0	 30.0;
	11598	 6973	 0.0008	 0.00719	 0.0	 4367	 4367	 4367	 0.0	 0.0	 1	 -30.0	 30.0;
	2983	 2257	 0.0002	 0.0022	 0.0	 14299	 14299	 14299	 0.0	 0.0	 1	 -30.0	 30.0;
	2983	 10869	 0.0002	 0.0022	 0.0	 14299	 14299	 14299	 0.0	 0.0	 1	 -30.0	 30.0;
	411	 4997	 0.000205	 0.00215	 0.0	 14626	 14626	 14626	 0.0	 0.0	 1	 -30.0	 30.0;
	411	 10869	 0.000205	 0.00215	 0.0	 14626	 14626	 14626	 0.0	 0.0	 1	 -30.0	 30.0;
...